Adsorption isotherm of Methane on Zeolite 5A
DOI: 10.1021/jacs.9b01891
Article source: Figure 1a
Adsorbate Methane: InChIKey VNWKTOKETHGBQD-UHFFFAOYSA-N
Temperature: 303 K
pressure (bar)	uptake (mmol/g)
0.310676	0.019531
5.13617	0.000625751
7.9371100000000006	0.0204602
12.4495	0.060660000000000006
30.0339	0.159605
44.8187	0.20039200000000001
58.3573	0.270268
66.2941	0.30047399999999996
72.9855	0.340276
