Adsorption isotherm of Methane on NIST RM-8850
DOI: 10.1007/s10450-020-00253-0
Article source: Figure S6
Adsorbate Methane: InChIKey VNWKTOKETHGBQD-UHFFFAOYSA-N
Kind: experiment
Isotherm type: excess
Temperature: 298 K
Tabular data in the source: True
pressure (MPa)	uptake (mmol/g)
0.03362024	0.11270688
0.08608975	0.31327451
0.15332591	0.55895366
0.46870088	1.54686033
0.72746779	2.15368729
0.92712632	2.5157927
1.07506431	2.73934038
1.21080763	2.9156223
1.40978577	3.1327809
1.61057213	3.31352207
1.80789726	3.46258196
2.00828373	3.59151034
2.20699332	3.69978953
2.40949524	3.79539594
2.60590135	3.87534175
2.80855855	3.94688405
3.00958351	4.00769019
3.45024921	4.11443628
3.9048642	4.19419317
4.35044134	4.25234213
4.79847717	4.29152116
5.24724124	4.31773156
5.70059431	4.33362415
6.14138905	4.33511572
6.5871968	4.32510135
7.04147556	4.30801953
7.49369286	4.27961068
