Adsorption isotherm of Argon on NIST RM-8850
DOI: 10.1007/s10450-020-00253-0
Article source: Figure S1
Adsorbate Argon: InChIKey XKRFYHLGVUSROY-UHFFFAOYSA-N
Kind: experiment
Isotherm type: excess
Temperature: 87 K
Tabular data in the source: True
pressure (RELATIVE)	uptake (cm3(STP)/g)
6.53771e-07	0.0345
1.93509e-06	0.3145
4.49258e-06	0.5951
6.092469999999999e-06	0.804
6.938510000000001e-06	0.9269
1.97872e-05	2.0751
2.77132e-05	2.6959
3.6161599999999996e-05	3.3192
4.4111000000000005e-05	3.918
6.0210699999999996e-05	5.0862
6.775729999999999e-05	5.6227
7.49091e-05	6.1471
8.98222e-05	7.2506
9.6738e-05	7.7571
0.0002074	16.828
0.000308967	27.2196
0.00040294	38.5773
0.000500916	53.623000000000005
0.000602553	72.595
0.0007025689999999999	93.1222
0.000802985	111.8912
0.0009008610000000001	125.9135
0.00100391	136.4424
0.00204641	177.6426
0.00311852	190.2539
0.00403785	195.8704
0.00501793	199.8118
0.00603248	202.71099999999998
0.00701752	204.8615
0.00802981	206.6507
0.00903946	208.1423
0.010062100000000001	209.4295
0.0203025	216.7183
0.026360200000000004	219.0593
0.030273400000000002	220.2559
0.0412514	222.8596
0.0499341	224.34
0.06006759999999999	225.72799999999998
0.0704909	226.8851
0.07635	227.4669
0.0814328	227.9186
0.0911722	228.6943
0.101338	229.3924
0.125686	230.8425
0.149807	232.0473
0.175091	233.1259
0.200427	234.0593
0.225507	234.8811
0.250706	235.6442
0.27569099999999996	236.3558
0.301014	237.0006
0.325841	237.615
0.351013	238.1877
0.375775	238.7474
0.401069	239.2925
0.426034	239.8118
0.45088500000000004	240.3092
0.476243	240.7902
0.5008640000000001	241.2776
0.526749	241.7494
0.550313	242.2891
0.5754630000000001	242.815
0.601171	243.308
0.625961	243.7822
0.651396	244.2226
0.675941	244.735
0.7012970000000001	245.2001
0.726006	245.6807
0.751408	246.1625
0.77563	246.6876
0.8009970000000001	247.203
0.826348	247.8186
0.850459	248.3849
0.8760129999999999	249.0667
0.899552	249.9287
0.92535	251.0305
0.949622	252.5851
0.973814	256.185
0.995025	274.2511
0.946775	253.7023
0.898761	250.8904
0.8511110000000001	249.4186
0.8001159999999999	248.1937
0.750071	247.1461
0.699919	246.1356
0.650397	245.1666
0.599995	244.1857
0.549796	243.2479
0.500237	242.2733
0.45027	241.0803
0.40021	239.8172
0.350302	238.6762
0.30019	237.4537
0.250377	236.1096
0.200879	234.52200000000002
0.148757	232.415
0.09944639999999999	229.7168
0.0496502	224.7216
